Version 4
SHEET 1 880 680
WIRE 208 112 208 96
WIRE 208 224 208 208
FLAG 208 224 0
SYMBOL npn 144 112 R0
SYMATTR InstName Q1
SYMATTR Value ""
SYMBOL res 192 0 R0
SYMATTR InstName 1mA
SYMATTR Value ""
TEXT 128 160 Right 2 ;+Veb-
