Version 4
SHEET 1 880 680
SYMBOL npn 144 96 R0
WINDOW 0 99 47 Left 2
SYMATTR InstName ro
SYMATTR Value ""
LINE Normal 208 128 224 112 2
LINE Normal 224 128 208 128 2
LINE Normal 208 144 224 128 2
LINE Normal 224 144 208 144 2
LINE Normal 208 160 224 144 2
LINE Normal 224 160 208 160 2
LINE Normal 224 176 224 160 2
