Version 4
SHEET 1 880 680
SYMBOL pnp 32 48 R0
SYMATTR InstName Q1
